/*--------------------------------*- C++ -*----------------------------------*\
| =========                 |                                                 |
| \\      /  F ield         | foam-extend: Open Source CFD                    |
|  \\    /   O peration     | Version:     2106                               |
|   \\  /    A nd           | Web:         http://www.openfoam.org            |
|    \\/     M anipulation  |                                                 |
\*---------------------------------------------------------------------------*/
FoamFile
{
    version     2.0;
    format      ascii;
    class       dictionary;
    object      extrudeMeshDict;
}

constructFrom patch;
sourceCase "./";
sourcePatches (front);
exposedPatchName back;

flipNormals false;   //改成false可以改变extrude的方向
extrudeModel        linearNormal;
nLayers             1;
expansionRatio      1.0;
linearNormalCoeffs
{
    thickness       0.0005;
}
mergeFaces false;

mergeTol 0;
