/*--------------------------------*- C++ -*----------------------------------*\
  =========                 |
  \\      /  F ield         | OpenFOAM: The Open Source CFD Toolbox
   \\    /   O peration     | Website:  https://openfoam.org
    \\  /    A nd           | Version:  8
     \\/     M anipulation  |
\*---------------------------------------------------------------------------*/
FoamFile
{
    version     2.0;
    format      ascii;
    class       dictionary;
    object      topoSetDict;
}
// * * * * * * * * * * * * * * * * * * * * * * * * * * * * * * * * * * * * * //

actions
(
    {
        name    c1;
        type    cellSet;
        action  new;
        source  sphereToCell;
        origin  (0 0 0);
        radius  0.05;
    }
    {
        name    kernel;
        type    cellZoneSet;
        action  new;
        source  setToCellZone;
        sourceInfo
        {
            set c1; 
        }
    }
);

// ************************************************************************* //
